FINISH
$/clear
/filname, DFG
/PREP7

ET,1,PLANE182,2,,3 
R,1,0.01
!ZELLE
MPTEMP,,,,,
MPTEMP,1,0
MP,EX,1,210000000000
MP,NUXY,1,0.3
MP,DENS,1,7860  

blc4,0,0,1,0.1

*set,division,2
lesize,1,,,4*division
lesize,2,,,division
lesize,3,,,4*division
lesize,4,,,division

MSHKEY,0
TYPE,1
MAT,1
AMESH,1
vmesh,all

D,1,UX,0
D,12,UX,0
D,1,UY,0
D,12,UY,0

F,10,FY,-1