
 ANSYS Academic Research                           


 *------------------------------------------------------------------*
 |                                                                  |
 |   W E L C O M E   T O   T H E   A N S Y S (R)  P R O G R A M     |
 |                                                                  |
 *------------------------------------------------------------------*




 ***************************************************************
 *            ANSYS Release 17.1     LEGAL NOTICES             *
 ***************************************************************
 *                                                             *
 * Copyright 2016 SAS IP, Inc.  All rights reserved.           *
 * Unauthorized use, distribution or duplication is            *
 * prohibited.                                                 *
 *                                                             *
 * Ansys is a registered trademark of ANSYS, Inc. or its       *
 * subsidiaries in the United States or other countries.       *
 * See the ANSYS, Inc. online documentation or the ANSYS, Inc. *
 * documentation CD or online help for the complete Legal      *
 * Notice.                                                     *
 *                                                             *
 ***************************************************************
 *                                                             *
 * THIS ANSYS SOFTWARE PRODUCT AND PROGRAM DOCUMENTATION       *
 * INCLUDE TRADE SECRETS AND CONFIDENTIAL AND PROPRIETARY      *
 * PRODUCTS OF ANSYS, INC., ITS SUBSIDIARIES, OR LICENSORS.    *
 * The software products and documentation are furnished by    *
 * ANSYS, Inc. or its subsidiaries under a software license    *
 * agreement that contains provisions concerning               *
 * non-disclosure, copying, length and nature of use,          *
 * compliance with exporting laws, warranties, disclaimers,    *
 * limitations of liability, and remedies, and other           *
 * provisions.  The software products and documentation may be *
 * used, disclosed, transferred, or copied only in accordance  *
 * with the terms and conditions of that software license      *
 * agreement.                                                  *
 *                                                             *
 * ANSYS, Inc. is a UL registered                              *
 * ISO 9001:2008 company.                                      *
 *                                                             *
 ***************************************************************
 *                                                             *
 * This product is subject to U.S. laws governing export and   *
 * re-export.                                                  *
 *                                                             *
 * For U.S. Government users, except as specifically granted   *
 * by the ANSYS, Inc. software license agreement, the use,     *
 * duplication, or disclosure by the United States Government  *
 * is subject to restrictions stated in the ANSYS, Inc.        *
 * software license agreement and FAR 12.212 (for non-DOD      *
 * licenses).                                                  *
 *                                                             *
 ***************************************************************

 Release 17.1
     
 Point Releases and Patches installed:   
     
 ANSYS, Inc. Products Release 17.1   
 ANSYS Mechanical Products Release 17.1  
 ANSYS Customization Files for User Programmable Features Release 17.1   
 ANSYS, Inc. License Manager Release 17.1


          *****  ANSYS COMMAND LINE ARGUMENTS  *****
  BATCH MODE REQUESTED (-b)    = LIST
  INPUT FILE COPY MODE (-c)    = COPY
  DESIGNXPLORER REQUESTED

 RELEASE= Release 17.1         BUILD= 17.1      UP20160404   VERSION=WINDOWS x64 
 CURRENT JOBNAME=file  16:11:52  AUG 01, 2018 CP=      0.656

     1  /INPUT,3DBeam,txt,F:\ALMA_simulations\Tools\SVN_Dispersion\Models\,,0   
     2  /PREP7  
     3  EMATWRITE,YES   
     4  /output,DataAnsys/nodeCoor,txt  
     5  NLIST,ALL,,,XYZ,NODE,NODE,NODE  
     6  /output 
     7  /output,DataAnsys/nodeRest,txt  
     8  DLIST,ALL,  
     9  /output 
    10  /output,DataAnsys/elemTyp,txt   
    11  ETLIST,ALL, 
    12  /output 
    13  /output,DataAnsys/elemNodes,txt 
    14  ELIST,ALL,  
    15  /output 
    16  /output,DataAnsys/materialPro,txt   
    17  MPLIST,ALL,,,EVLT   
    18  /output 
    19  /SOLU   
    20  ANTYPE,MODAL
    21  MODOPT,DAMP,1   
    22  MXPAND,1,,,YES  
    23  WRFULL,1
    24  SOLVE   
    25  FINISH  
    26  /AUX2   
    27  file,,full  
    28  HBMAT,DataAnsys/HBMstiff,txt,,ascii,stiff,yes,yes   
    29  HBMAT,DataAnsys/HBMmass,txt,,ascii,mass,yes,yes 
    30  HBMAT,DataAnsys/HBMdamp,txt,,ascii,damp,yes,yes 
    31  FINISH  
    32  /AUX2   
    33  /output,DataAnsys/record_5,txt  
    34  form,long   
    35  fileaux2,,emat,F:\ALMA_simulations\Tools\SVN_Dispersion\Models\ 
    36  dump,5,5
    37  /output 
    38  FINISH  

 RUN SETUP PROCEDURE FROM FILE= C:\Program Files\ANSYS Inc\v171\ANSYS\apdl\start.ans

 /INPUT FILE= C:\Program Files\ANSYS Inc\v171\ANSYS\apdl\start.ans  LINE=       0

 /INPUT FILE= F:\ALMA_simulations\Tools\SVN_Dispersion\Models\3DBeam.txt  LINE=       0

 CLEAR DATABASE AND RERUN START.ANS

 RUN SETUP PROCEDURE FROM FILE= C:\Program Files\ANSYS Inc\v171\ANSYS\apdl\start.ans

 ANSYS Academic Research                           

 /INPUT FILE= C:\Program Files\ANSYS Inc\v171\ANSYS\apdl\start.ans  LINE=       0

 CURRENT JOBNAME REDEFINED AS 3DBeamparametric

 *** ANSYS - ENGINEERING ANALYSIS SYSTEM  RELEASE Release 17.1     17.1     ***
 ANSYS Academic Research                           
 00226479  VERSION=WINDOWS x64   16:11:52  AUG 01, 2018 CP=      0.766

                                                                               



          ***** ANSYS ANALYSIS DEFINITION (PREP7) *****

 PARAMETER M_PERCENT =    0.1000000000    

 PARAMETER F =     100.0000000    

 PARAMETER D =    0.2000000000E-01

 PARAMETER LX =    0.5000000000E-01

 PARAMETER LY =    0.5000000000E-01

 PARAMETER LZ =    0.1000000000E-01

 PARAMETER DICHTE =     4429.000000    

 PARAMETER EMODUL =    0.1040000000E+12

 PARAMETER POISSON =    0.3100000000    

 PARAMETER V =    0.2500000000E-04

 PARAMETER MASSEPLATTE =    0.1107250000    

 PARAMETER M =    0.1107250000E-01

 PARAMETER K =     4371.247789    

 PARAMETER C =    0.2782822773    

 ELEMENT TYPE       1 IS SOLID185     3-D 8-NODE STRUCTURAL SOLID 
  KEYOPT( 1- 6)=        0      3      0        0      0      0
  KEYOPT( 7-12)=        0      0      0        0      0      0
  KEYOPT(13-18)=        0      0      0        0      0      0

 CURRENT NODAL DOF SET IS  UX    UY    UZ  
  THREE-DIMENSIONAL MODEL

 MATERIAL         1     EX   =  0.2100000E+12  

 MATERIAL         1     DENS =   7800.000      

 MATERIAL         1     PRXY =  0.3000000      

 CREATE A HEXAHEDRAL VOLUME WITH
 X-DISTANCES FROM      0.000000000     TO     0.5000000000E-01
 Y-DISTANCES FROM      0.000000000     TO     0.5000000000E-01
 Z-DISTANCES FROM      0.000000000     TO     0.1000000000E-01

      OUTPUT VOLUME =     1
 USE THE MAPPED MESHER.

 PARAMETER DIVISION =     2.000000000    

 SET DIVISIONS ON LINE     1 (IF SELECTED)
      TO  NDIV =    2,  SPACING RATIO =   1.000

 SET DIVISIONS ON LINE     2 (IF SELECTED)
      TO  NDIV =   10,  SPACING RATIO =   1.000

 SET DIVISIONS ON LINE     3 (IF SELECTED)
      TO  NDIV =    2,  SPACING RATIO =   1.000

 SET DIVISIONS ON LINE     4 (IF SELECTED)
      TO  NDIV =   10,  SPACING RATIO =   1.000

 SET DIVISIONS ON LINE     5 (IF SELECTED)
      TO  NDIV =   10,  SPACING RATIO =   1.000

 SET DIVISIONS ON LINE     6 (IF SELECTED)
      TO  NDIV =    2,  SPACING RATIO =   1.000

 SET DIVISIONS ON LINE     7 (IF SELECTED)
      TO  NDIV =   10,  SPACING RATIO =   1.000

 SET DIVISIONS ON LINE     8 (IF SELECTED)
      TO  NDIV =    2,  SPACING RATIO =   1.000

 SET DIVISIONS ON LINE     9 (IF SELECTED)
      TO  NDIV =    2,  SPACING RATIO =   1.000

 SET DIVISIONS ON LINE    10 (IF SELECTED)
      TO  NDIV =    2,  SPACING RATIO =   1.000

 SET DIVISIONS ON LINE    11 (IF SELECTED)
      TO  NDIV =    2,  SPACING RATIO =   1.000

 SET DIVISIONS ON LINE    12 (IF SELECTED)
      TO  NDIV =    2,  SPACING RATIO =   1.000

 GENERATE NODES AND ELEMENTS   IN  ALL  SELECTED VOLUMES  

 NUMBER OF VOLUMES MESHED   =         1
 MAXIMUM NODE NUMBER        =        99
 MAXIMUM ELEMENT NUMBER     =        40
 You have already entered the general preprocessor (PREP7).              

 FORCE WRITING OF THE EMAT FILE

 /OUTPUT FILE= DataAnsys/nodeCoor.txt

 /OUTPUT FILE= DataAnsys/nodeRest.txt

 /OUTPUT FILE= DataAnsys/elemTyp.txt

 /OUTPUT FILE= DataAnsys/elemNodes.txt

 /OUTPUT FILE= DataAnsys/materialPro.txt


 ***** ROUTINE COMPLETED *****  CP =         0.766



 *****  ANSYS SOLUTION ROUTINE  *****


 PERFORM A MODAL ANALYSIS
  THIS WILL BE A NEW ANALYSIS


 USE DAMPED SYSTEM MODE EXTRACTION METHOD
  EXTRACT    1 MODES
  NORMALIZE THE MODE SHAPES TO THE MASS MATRIX


 NUMBER OF MODES TO EXPAND=     1
  CALCULATE ELEMENT RESULTS AND NODAL DOF SOLUTION

 STOP SOLUTION AFTER FULL FILE HAS BEEN WRITTEN
   LOADSTEP =    1 SUBSTEP =    1 EQ. ITER =    1

 *****  ANSYS SOLVE    COMMAND  *****

 *** NOTE ***                            CP =       0.766   TIME= 16:11:52
 There is no title defined for this analysis.                            

 *** SELECTION OF ELEMENT TECHNOLOGIES FOR APPLICABLE ELEMENTS ***
                ---GIVE SUGGESTIONS ONLY---

 ELEMENT TYPE    1 IS SOLID185. KEYOPT(2) IS ALREADY SET AS SUGGESTED.



 *** ANSYS - ENGINEERING ANALYSIS SYSTEM  RELEASE Release 17.1     17.1     ***
 ANSYS Academic Research                           
 00226479  VERSION=WINDOWS x64   16:11:52  AUG 01, 2018 CP=      0.766

                                                                               



                       S O L U T I O N   O P T I O N S

   PROBLEM DIMENSIONALITY. . . . . . . . . . . . .3-D                  
   DEGREES OF FREEDOM. . . . . . UX   UY   UZ  
   ANALYSIS TYPE . . . . . . . . . . . . . . . . .MODAL                
      EXTRACTION METHOD. . . . . . . . . . . . . .DAMPED       
   NUMBER OF MODES TO EXTRACT. . . . . . . . . . .     1
   STOP SOLUTION AFTER ASSEMBLY. . . . . . . . . .ON 
      LOADSTEP . . . . . . . . . . . . . . . . . .    1
      SUBSTEP. . . . . . . . . . . . . . . . . . .    1
      EQUILIBRIUM ITERATION. . . . . . . . . . . .    1
   GLOBALLY ASSEMBLED MATRIX . . . . . . . . . . .SYMMETRIC  
   NUMBER OF MODES TO EXPAND . . . . . . . . . . .     1
   ELEMENT RESULTS CALCULATION . . . . . . . . . .ON 

 *** WARNING ***                         CP =       0.766   TIME= 16:11:52
 No constraints have been defined using the D command.                   

 *** NOTE ***                            CP =       0.766   TIME= 16:11:52
 The step data was checked and warning messages were found.              
  Please review output or errors file ( F:\bmFEM\bm-mfem\file.err ) for  
 these warning messages.                                                 

                      L O A D   S T E P   O P T I O N S

   LOAD STEP NUMBER. . . . . . . . . . . . . . . .     1
   THERMAL STRAINS INCLUDED IN THE LOAD VECTOR . .   YES
   PRINT OUTPUT CONTROLS . . . . . . . . . . . . .NO PRINTOUT
   DATABASE OUTPUT CONTROLS. . . . . . . . . . . .ALL DATA WRITTEN



                         ***********  PRECISE MASS SUMMARY  ***********

   TOTAL RIGID BODY MASS MATRIX ABOUT ORIGIN
               Translational mass               |   Coupled translational/rotational mass
        0.19500        0.0000        0.0000     |     0.0000       0.97500E-03  -0.48750E-02
         0.0000       0.19500        0.0000     |   -0.97500E-03    0.0000       0.48750E-02
         0.0000        0.0000       0.19500     |    0.48750E-02  -0.48750E-02    0.0000    
     ------------------------------------------ | ------------------------------------------
                                                |         Rotational mass (inertia)
                                                |    0.16900E-03  -0.12188E-03  -0.24375E-04
                                                |   -0.12188E-03   0.16900E-03  -0.24375E-04
                                                |   -0.24375E-04  -0.24375E-04   0.32500E-03

   TOTAL MASS = 0.19500    
     The mass principal axes coincide with the global Cartesian axes

   CENTER OF MASS (X,Y,Z)=   0.25000E-01   0.25000E-01   0.50000E-02

   TOTAL INERTIA ABOUT CENTER OF MASS
        0.42250E-04   0.54037E-19  -0.76783E-20
        0.54037E-19   0.42250E-04   0.14792E-19
       -0.76783E-20   0.14792E-19   0.81250E-04
     The inertia principal axes coincide with the global Cartesian axes


  *** MASS SUMMARY BY ELEMENT TYPE ***

  TYPE      MASS
     1  0.195000    

 Range of element maximum matrix coefficients in global coordinates
 Maximum = 920753205 at element 19.                                      
 Minimum = 920753205 at element 23.                                      

   *** ELEMENT MATRIX FORMULATION TIMES
  TYPE    NUMBER   ENAME      TOTAL CP  AVE CP

     1        40  SOLID185      0.000   0.000000
 Time at end of element matrix formulation CP = 0.78125.                 

 *** NOTE ***                            CP =       0.781   TIME= 16:11:52
 The requested load step has been reached and the FULL file has been     
 written.  Skipping mode extraction and exiting the SOLVE command.       


 *** ANSYS BINARY FILE STATISTICS
  BUFFER SIZE USED= 16384
        0.312 MB WRITTEN ON ELEMENT MATRIX FILE: 3DBeamparametric.emat
        0.188 MB WRITTEN ON ASSEMBLED MATRIX FILE: 3DBeamparametric.full
        0.062 MB WRITTEN ON MODAL MATRIX FILE: 3DBeamparametric.mode
        0.000 MB WRITTEN ON RESULTS FILE: 3DBeamparametric.rst

 FINISH SOLUTION PROCESSING


 ***** ROUTINE COMPLETED *****  CP =         0.797



 *** ANSYS - ENGINEERING ANALYSIS SYSTEM  RELEASE Release 17.1     17.1     ***
 ANSYS Academic Research                           
 00226479  VERSION=WINDOWS x64   16:11:52  AUG 01, 2018 CP=      0.797

                                                                               



   ***** ANSYS BINARY FILE DUMP *****



 FILE NAME = 3DBeamparametric.full

               ***** AUX02 MATRIX DUMP UTILITY *****


 DUMP MATRIX FROM 3DBeamparametric.full
 DUMP MATRIX TO DataAnsys/HBMstiff.txt
 WRITE MATRIX FILE IN ASCII FORMAT
 DUMP STIFFNESS MATRIX
 DUMP RIGHT HAND SIDE
 WRITE MAPPING FILE

               ***** AUX02 MATRIX DUMP UTILITY *****


 DUMP MATRIX FROM 3DBeamparametric.full
 DUMP MATRIX TO DataAnsys/HBMmass.txt
 WRITE MATRIX FILE IN ASCII FORMAT
 DUMP MASS MATRIX
 DUMP RIGHT HAND SIDE
 WRITE MAPPING FILE

               ***** AUX02 MATRIX DUMP UTILITY *****


 DUMP MATRIX FROM 3DBeamparametric.full
 DUMP MATRIX TO DataAnsys/HBMdamp.txt
 WRITE MATRIX FILE IN ASCII FORMAT
 DUMP DAMPING MATRIX
 DUMP RIGHT HAND SIDE
 WRITE MAPPING FILE


 ***** ROUTINE COMPLETED *****  CP =         0.844



 *** ANSYS - ENGINEERING ANALYSIS SYSTEM  RELEASE Release 17.1     17.1     ***
 ANSYS Academic Research                           
 00226479  VERSION=WINDOWS x64   16:11:52  AUG 01, 2018 CP=      0.844

                                                                               



   ***** ANSYS BINARY FILE DUMP *****



 /OUTPUT FILE= DataAnsys/record_5.txt


 ***** ROUTINE COMPLETED *****  CP =         0.844



 ***** END OF INPUT ENCOUNTERED *****

 PURGE ALL SOLUTION AND POST DATA
 SAVE ALL MODEL DATA

 ALL CURRENT ANSYS DATA WRITTEN TO FILE NAME= 3DBeamparametric.db
  FOR POSSIBLE RESUME FROM THIS POINT


 NUMBER OF WARNING MESSAGES ENCOUNTERED=          1
 NUMBER OF ERROR   MESSAGES ENCOUNTERED=          0

+--------------------- A N S Y S   S T A T I S T I C S ------------------------+

Release: Release 17.1       Build: 17.1       Update: UP20160404   Platform: WINDOWS x64 
Date Run: 08/01/2018   Time: 16:11
Operating System: Windows 10  (Build: 10240)
Windows Process ID: 1336        

Processor Model: Intel(R) Xeon(R) CPU E5-1607 v3 @ 3.10GHz

Compiler: Intel(R) FORTRAN Compiler Version 15.0.2  (Build: 20150121)
          Intel(R) C/C++ Compiler Version 15.0.2  (Build: 20150121)
          Intel(R) Math Kernel Library Version 11.2.3 Product Build 20150413

Number of machines requested            :    1
Total number of cores available         :    4
Number of physical cores available      :    4
Number of processes requested           :    1
Number of threads per process requested :    2
Total number of cores requested         :    2 (Shared Memory Parallel)                    

GPU Acceleration: Not Requested

Job Name: 3DBeamparametric
Working Directory: F:\bmFEM\bm-mfem

Total CPU time for main thread                    :        0.9 seconds
Total CPU time summed for all threads             :        0.8 seconds

Elapsed time spent pre-processing model (/PREP7)  :        0.0 seconds
Elapsed time spent solution - preprocessing       :        0.0 seconds
Elapsed time spent computing solution             :        0.0 seconds
Elapsed time spent solution - postprocessing      :        0.0 seconds
Elapsed time spent post-processing model (/POST1) :        0.0 seconds
 
Eigensolver used                                  :            Damped

Maximum total memory used                         :      765.0 MB
Maximum total memory allocated                    :     2112.0 MB
Maximum total memory available                    :         32 GB

+------------------ E N D   A N S Y S   S T A T I S T I C S -------------------+


 *---------------------------------------------------------------------------*
 |                                                                           |
 |                            ANSYS RUN COMPLETED                            |
 |                                                                           |
 |---------------------------------------------------------------------------|
 |                                                                           |
 | Ansys Release 17.1          Build 17.1         UP20160404     WINDOWS x64 |
 |                                                                           |
 |---------------------------------------------------------------------------|
 |                                                                           |
 | Database Requested(-db)  1024 MB    Scratch Memory Requested      1024 MB |
 | Maximum Database Used       1 MB    Maximum Scratch Memory Used    764 MB |
 |                                                                           |
 |---------------------------------------------------------------------------|
 |                                                                           |
 |        CP Time      (sec) =          0.844       Time  =  16:11:52        |
 |        Elapsed Time (sec) =          2.000       Date  =  08/01/2018      |
 |                                                                           |
 *---------------------------------------------------------------------------*
